data_Layer
_audit_creation_date              2019-07-30
_audit_creation_method            'Materials Studio'
_symmetry_space_group_name_H-M    'P1'
_symmetry_Int_Tables_number       1
_symmetry_cell_setting            triclinic
loop_
_symmetry_equiv_pos_as_xyz
  x,y,z
_cell_length_a                    10.1935
_cell_length_b                    7.2079
_cell_length_c                    54.1914
_cell_angle_alpha                 90.0000
_cell_angle_beta                  90.0000
_cell_angle_gamma                 45.0000
loop_
_atom_site_label
_atom_site_type_symbol
_atom_site_fract_x
_atom_site_fract_y
_atom_site_fract_z
_atom_site_U_iso_or_equiv
_atom_site_adp_type
_atom_site_occupancy
N1     N     0.90000   0.90000   0.18125   0.01267  Uiso   1.00
N2     N     0.50000   0.50000   0.18125   0.01267  Uiso   1.00
N3     N     0.10000   0.10000   0.18125   0.01267  Uiso   1.00
N4     N     0.70000   0.70000   0.18125   0.01267  Uiso   1.00
N5     N     0.30000   0.30000   0.18125   0.01267  Uiso   1.00
N6     N     0.90000   0.90000   0.26696   0.01267  Uiso   1.00
N7     N     0.50000   0.50000   0.26696   0.01267  Uiso   1.00
N8     N     0.10000   0.10000   0.26696   0.01267  Uiso   1.00
N9     N     0.70000   0.70000   0.26696   0.01267  Uiso   1.00
N10    N     0.30000   0.30000   0.26696   0.01267  Uiso   1.00
N11    N     0.90000   0.90000   0.35267   0.01267  Uiso   1.00
N12    N     0.50000   0.50000   0.35267   0.01267  Uiso   1.00
N13    N     0.10000   0.10000   0.35267   0.01267  Uiso   1.00
N14    N     0.70000   0.70000   0.35267   0.01267  Uiso   1.00
N15    N     0.30000   0.30000   0.35267   0.01267  Uiso   1.00
N16    N     0.90000   0.90000   0.43838   0.01267  Uiso   1.00
N17    N     0.50000   0.50000   0.43838   0.01267  Uiso   1.00
N18    N     0.10000   0.10000   0.43838   0.01267  Uiso   1.00
N19    N     0.70000   0.70000   0.43838   0.01267  Uiso   1.00
N20    N     0.30000   0.30000   0.43838   0.01267  Uiso   1.00
N21    N     0.90000   0.90000   0.52409   0.01267  Uiso   1.00
N22    N     0.50000   0.50000   0.52409   0.01267  Uiso   1.00
N23    N     0.10000   0.10000   0.52409   0.01267  Uiso   1.00
N24    N     0.70000   0.70000   0.52409   0.01267  Uiso   1.00
N25    N     0.30000   0.30000   0.52409   0.01267  Uiso   1.00
N26    N     0.80000   0.30000   0.13840   0.01267  Uiso   1.00
N27    N     0.40000   0.90000   0.13840   0.01267  Uiso   1.00
N28    N    -0.00000   0.50000   0.13840   0.01267  Uiso   1.00
N29    N     0.60000   0.10000   0.13840   0.01267  Uiso   1.00
N30    N     0.20000   0.70000   0.13840   0.01267  Uiso   1.00
N31    N     0.80000   0.30000   0.22411   0.01267  Uiso   1.00
N32    N     0.40000   0.90000   0.22411   0.01267  Uiso   1.00
N33    N    -0.00000   0.50000   0.22411   0.01267  Uiso   1.00
N34    N     0.60000   0.10000   0.22411   0.01267  Uiso   1.00
N35    N     0.20000   0.70000   0.22411   0.01267  Uiso   1.00
N36    N     0.80000   0.30000   0.30981   0.01267  Uiso   1.00
N37    N     0.40000   0.90000   0.30981   0.01267  Uiso   1.00
N38    N    -0.00000   0.50000   0.30981   0.01267  Uiso   1.00
N39    N     0.60000   0.10000   0.30981   0.01267  Uiso   1.00
N40    N     0.20000   0.70000   0.30981   0.01267  Uiso   1.00
N41    N     0.80000   0.30000   0.39553   0.01267  Uiso   1.00
N42    N     0.40000   0.90000   0.39553   0.01267  Uiso   1.00
N43    N     0.00000   0.50000   0.39553   0.01267  Uiso   1.00
N44    N     0.60000   0.10000   0.39553   0.01267  Uiso   1.00
N45    N     0.20000   0.70000   0.39553   0.01267  Uiso   1.00
N46    N     0.80000   0.30000   0.48124   0.01267  Uiso   1.00
N47    N     0.40000   0.90000   0.48124   0.01267  Uiso   1.00
N48    N     0.00000   0.50000   0.48124   0.01267  Uiso   1.00
N49    N     0.60000   0.10000   0.48124   0.01267  Uiso   1.00
N50    N     0.20000   0.70000   0.48124   0.01267  Uiso   1.00
Ga1    Ga    0.00000   0.00000   0.15982   0.01267  Uiso   1.00
Ga2    Ga    0.60000   0.60000   0.15982   0.01267  Uiso   1.00
Ga3    Ga    0.20000   0.20000   0.15982   0.01267  Uiso   1.00
Ga4    Ga    0.80000   0.80000   0.15982   0.01267  Uiso   1.00
Ga5    Ga    0.40000   0.40000   0.15982   0.01267  Uiso   1.00
Ga6    Ga    0.00000   0.00000   0.24553   0.01267  Uiso   1.00
Ga7    Ga    0.60000   0.60000   0.24553   0.01267  Uiso   1.00
Ga8    Ga    0.20000   0.20000   0.24553   0.01267  Uiso   1.00
Ga9    Ga    0.80000   0.80000   0.24553   0.01267  Uiso   1.00
Ga10   Ga    0.40000   0.40000   0.24553   0.01267  Uiso   1.00
Ga11   Ga    0.00000   0.00000   0.33125   0.01267  Uiso   1.00
Ga12   Ga    0.60000   0.60000   0.33125   0.01267  Uiso   1.00
Ga13   Ga    0.20000   0.20000   0.33125   0.01267  Uiso   1.00
Ga14   Ga    0.80000   0.80000   0.33125   0.01267  Uiso   1.00
Ga15   Ga    0.40000   0.40000   0.33125   0.01267  Uiso   1.00
Ga16   Ga    0.00000   0.00000   0.41695   0.01267  Uiso   1.00
Ga17   Ga    0.60000   0.60000   0.41695   0.01267  Uiso   1.00
Ga18   Ga    0.20000   0.20000   0.41695   0.01267  Uiso   1.00
Ga19   Ga    0.80000   0.80000   0.41695   0.01267  Uiso   1.00
Ga20   Ga    0.40000   0.40000   0.41695   0.01267  Uiso   1.00
Ga21   Ga    0.00000   0.00000   0.50266   0.01267  Uiso   1.00
Ga22   Ga    0.60000   0.60000   0.50266   0.01267  Uiso   1.00
Ga23   Ga    0.20000   0.20000   0.50266   0.01267  Uiso   1.00
Ga24   Ga    0.80000   0.80000   0.50266   0.01267  Uiso   1.00
Ga25   Ga    0.40000   0.40000   0.50266   0.01267  Uiso   1.00
Ga26   Ga    0.70000   0.20000   0.20268   0.01267  Uiso   1.00
Ga27   Ga    0.30000   0.80000   0.20268   0.01267  Uiso   1.00
Ga28   Ga    0.90000   0.40000   0.20268   0.01267  Uiso   1.00
Ga29   Ga    0.50000   0.00000   0.20268   0.01267  Uiso   1.00
Ga30   Ga    0.10000   0.60000   0.20268   0.01267  Uiso   1.00
Ga31   Ga    0.70000   0.20000   0.28839   0.01267  Uiso   1.00
Ga32   Ga    0.30000   0.80000   0.28839   0.01267  Uiso   1.00
Ga33   Ga    0.90000   0.40000   0.28839   0.01267  Uiso   1.00
Ga34   Ga    0.50000   0.00000   0.28839   0.01267  Uiso   1.00
Ga35   Ga    0.10000   0.60000   0.28839   0.01267  Uiso   1.00
Ga36   Ga    0.70000   0.20000   0.37410   0.01267  Uiso   1.00
Ga37   Ga    0.30000   0.80000   0.37410   0.01267  Uiso   1.00
Ga38   Ga    0.90000   0.40000   0.37410   0.01267  Uiso   1.00
Ga39   Ga    0.50000   0.00000   0.37410   0.01267  Uiso   1.00
Ga40   Ga    0.10000   0.60000   0.37410   0.01267  Uiso   1.00
Ga41   Ga    0.70000   0.20000   0.45981   0.01267  Uiso   1.00
Ga42   Ga    0.30000   0.80000   0.45981   0.01267  Uiso   1.00
Ga43   Ga    0.90000   0.40000   0.45981   0.01267  Uiso   1.00
Ga44   Ga    0.50000   0.00000   0.45981   0.01267  Uiso   1.00
Ga45   Ga    0.10000   0.60000   0.45981   0.01267  Uiso   1.00
Ga46   Ga    0.70000   0.20000   0.54552   0.01267  Uiso   1.00
Ga47   Ga    0.30000   0.80000   0.54552   0.01267  Uiso   1.00
Ga48   Ga    0.90000   0.40000   0.54552   0.01267  Uiso   1.00
Ga49   Ga    0.50000   0.00000   0.54552   0.01267  Uiso   1.00
Ga50   Ga    0.10000   0.60000   0.54552   0.01267  Uiso   1.00
Hf1    Hf    0.00000   0.00000   0.67722   0.01267  Uiso   1.00
Hf2    Hf    0.50000   0.50000   0.67722   0.01267  Uiso   1.00
Hf3    Hf   -0.00000   0.50000   0.67722   0.01267  Uiso   1.00
Hf4    Hf    0.50000   0.00000   0.67722   0.01267  Uiso   1.00
Hf5    Hf    0.00000   0.00000   0.76941   0.01267  Uiso   1.00
Hf6    Hf    0.50000   0.50000   0.76941   0.01267  Uiso   1.00
Hf7    Hf   -0.00000   0.50000   0.76941   0.01267  Uiso   1.00
Hf8    Hf    0.50000   0.00000   0.76941   0.01267  Uiso   1.00
Hf9    Hf    0.00000   0.00000   0.86160   0.01267  Uiso   1.00
Hf10   Hf    0.50000   0.50000   0.86160   0.01267  Uiso   1.00
Hf11   Hf   -0.00000   0.50000   0.86160   0.01267  Uiso   1.00
Hf12   Hf    0.50000   0.00000   0.86160   0.01267  Uiso   1.00
Hf13   Hf    0.75000   0.00000   0.63113   0.01267  Uiso   1.00
Hf14   Hf    0.25000   0.50000   0.63113   0.01267  Uiso   1.00
Hf15   Hf    0.75000   0.50000   0.63113   0.01267  Uiso   1.00
Hf16   Hf    0.25000   0.00000   0.63113   0.01267  Uiso   1.00
Hf17   Hf    0.75000   0.00000   0.72331   0.01267  Uiso   1.00
Hf18   Hf    0.25000   0.50000   0.72331   0.01267  Uiso   1.00
Hf19   Hf    0.75000   0.50000   0.72331   0.01267  Uiso   1.00
Hf20   Hf    0.25000   0.00000   0.72331   0.01267  Uiso   1.00
Hf21   Hf    0.75000   0.00000   0.81551   0.01267  Uiso   1.00
Hf22   Hf    0.25000   0.50000   0.81551   0.01267  Uiso   1.00
Hf23   Hf    0.75000   0.50000   0.81551   0.01267  Uiso   1.00
Hf24   Hf    0.25000   0.00000   0.81551   0.01267  Uiso   1.00
O1     O    -0.00000   0.75000   0.60808   0.01267  Uiso   1.00
O2     O     0.50000   0.25000   0.60808   0.01267  Uiso   1.00
O3     O     0.00000   0.25000   0.60808   0.01267  Uiso   1.00
O4     O     0.50000   0.75000   0.60808   0.01267  Uiso   1.00
O5     O    -0.00000   0.75000   0.70027   0.01267  Uiso   1.00
O6     O     0.50000   0.25000   0.70027   0.01267  Uiso   1.00
O7     O     0.00000   0.25000   0.70027   0.01267  Uiso   1.00
O8     O     0.50000   0.75000   0.70027   0.01267  Uiso   1.00
O9     O    -0.00000   0.75000   0.79246   0.01267  Uiso   1.00
O10    O     0.50000   0.25000   0.79246   0.01267  Uiso   1.00
O11    O     0.00000   0.25000   0.79246   0.01267  Uiso   1.00
O12    O     0.50000   0.75000   0.79246   0.01267  Uiso   1.00
O13    O     0.75000   0.25000   0.65417   0.01267  Uiso   1.00
O14    O     0.25000   0.75000   0.65417   0.01267  Uiso   1.00
O15    O     0.75000   0.75000   0.65417   0.01267  Uiso   1.00
O16    O     0.25000   0.25000   0.65417   0.01267  Uiso   1.00
O17    O     0.75000   0.25000   0.74636   0.01267  Uiso   1.00
O18    O     0.25000   0.75000   0.74636   0.01267  Uiso   1.00
O19    O     0.75000   0.75000   0.74636   0.01267  Uiso   1.00
O20    O     0.25000   0.25000   0.74636   0.01267  Uiso   1.00
O21    O     0.75000   0.25000   0.83855   0.01267  Uiso   1.00
O22    O     0.25000   0.75000   0.83855   0.01267  Uiso   1.00
O23    O     0.75000   0.75000   0.83855   0.01267  Uiso   1.00
O24    O     0.25000   0.25000   0.83855   0.01267  Uiso   1.00
O25    O    -0.00000   0.75000   0.65417   0.01267  Uiso   1.00
O26    O     0.50000   0.25000   0.65417   0.01267  Uiso   1.00
O27    O     0.00000   0.25000   0.65417   0.01267  Uiso   1.00
O28    O     0.50000   0.75000   0.65417   0.01267  Uiso   1.00
O29    O    -0.00000   0.75000   0.74636   0.01267  Uiso   1.00
O30    O     0.50000   0.25000   0.74636   0.01267  Uiso   1.00
O31    O     0.00000   0.25000   0.74636   0.01267  Uiso   1.00
O32    O     0.50000   0.75000   0.74636   0.01267  Uiso   1.00
O33    O    -0.00000   0.75000   0.83855   0.01267  Uiso   1.00
O34    O     0.50000   0.25000   0.83855   0.01267  Uiso   1.00
O35    O    -0.00000   0.25000   0.83855   0.01267  Uiso   1.00
O36    O     0.50000   0.75000   0.83855   0.01267  Uiso   1.00
O37    O     0.75000   0.25000   0.60808   0.01267  Uiso   1.00
O38    O     0.25000   0.75000   0.60808   0.01267  Uiso   1.00
O39    O     0.75000   0.75000   0.60808   0.01267  Uiso   1.00
O40    O     0.25000   0.25000   0.60808   0.01267  Uiso   1.00
O41    O     0.75000   0.25000   0.70027   0.01267  Uiso   1.00
O42    O     0.25000   0.75000   0.70027   0.01267  Uiso   1.00
O43    O     0.75000   0.75000   0.70027   0.01267  Uiso   1.00
O44    O     0.25000   0.25000   0.70027   0.01267  Uiso   1.00
O45    O     0.75000   0.25000   0.79246   0.01267  Uiso   1.00
O46    O     0.25000   0.75000   0.79246   0.01267  Uiso   1.00
O47    O     0.75000   0.75000   0.79246   0.01267  Uiso   1.00
O48    O     0.25000   0.25000   0.79246   0.01267  Uiso   1.00
loop_
_geom_bond_atom_site_label_1
_geom_bond_atom_site_label_2
_geom_bond_distance
_geom_bond_site_symmetry_2
_ccdc_geom_bond_type
N1     Ga1     1.987   1_665 S
N1     Ga4     1.987   .     S
N1     Ga26    1.986   1_565 S
N1     Ga30    1.986   1_655 S
N2     Ga2     1.987   .     S
N2     Ga5     1.987   .     S
N2     Ga26    1.986   .     S
N2     Ga27    1.986   .     S
N3     Ga1     1.987   .     S
N3     Ga3     1.987   .     S
N3     Ga27    1.986   1_545 S
N3     Ga28    1.986   1_455 S
N4     Ga2     1.987   .     S
N4     Ga4     1.987   .     S
N4     Ga28    1.986   .     S
N4     Ga29    1.986   1_565 S
N5     Ga3     1.987   .     S
N5     Ga5     1.987   .     S
N5     Ga29    1.986   .     S
N5     Ga30    1.986   .     S
N6     Ga6     1.986   1_665 S
N6     Ga9     1.986   .     S
N6     Ga31    1.987   1_565 S
N6     Ga35    1.987   1_655 S
N7     Ga7     1.986   .     S
N7     Ga10    1.986   .     S
N7     Ga31    1.987   .     S
N7     Ga32    1.987   .     S
N8     Ga6     1.986   .     S
N8     Ga8     1.986   .     S
N8     Ga32    1.987   1_545 S
N8     Ga33    1.987   1_455 S
N9     Ga7     1.986   .     S
N9     Ga9     1.986   .     S
N9     Ga33    1.987   .     S
N9     Ga34    1.987   1_565 S
N10    Ga8     1.986   .     S
N10    Ga10    1.986   .     S
N10    Ga34    1.987   .     S
N10    Ga35    1.987   .     S
N11    Ga11    1.986   1_665 S
N11    Ga14    1.986   .     S
N11    Ga36    1.987   1_565 S
N11    Ga40    1.987   1_655 S
N12    Ga12    1.986   .     S
N12    Ga15    1.986   .     S
N12    Ga36    1.987   .     S
N12    Ga37    1.987   .     S
N13    Ga11    1.986   .     S
N13    Ga13    1.986   .     S
N13    Ga37    1.987   1_545 S
N13    Ga38    1.987   1_455 S
N14    Ga12    1.986   .     S
N14    Ga14    1.986   .     S
N14    Ga38    1.987   .     S
N14    Ga39    1.987   1_565 S
N15    Ga13    1.986   .     S
N15    Ga15    1.986   .     S
N15    Ga39    1.987   .     S
N15    Ga40    1.987   .     S
N16    Ga16    1.987   1_665 S
N16    Ga19    1.987   .     S
N16    Ga41    1.986   1_565 S
N16    Ga45    1.986   1_655 S
N17    Ga17    1.987   .     S
N17    Ga20    1.987   .     S
N17    Ga41    1.986   .     S
N17    Ga42    1.986   .     S
N18    Ga16    1.987   .     S
N18    Ga18    1.987   .     S
N18    Ga42    1.986   1_545 S
N18    Ga43    1.986   1_455 S
N19    Ga17    1.987   .     S
N19    Ga19    1.987   .     S
N19    Ga43    1.986   .     S
N19    Ga44    1.986   1_565 S
N20    Ga18    1.987   .     S
N20    Ga20    1.987   .     S
N20    Ga44    1.986   .     S
N20    Ga45    1.986   .     S
N21    Ga21    1.986   1_665 S
N21    Ga24    1.986   .     S
N21    Ga46    1.987   1_565 S
N21    Ga50    1.987   1_655 S
N22    Ga22    1.986   .     S
N22    Ga25    1.986   .     S
N22    Ga46    1.987   .     S
N22    Ga47    1.987   .     S
N23    Ga21    1.986   .     S
N23    Ga23    1.986   .     S
N23    Ga47    1.987   1_545 S
N23    Ga48    1.987   1_455 S
N24    Ga22    1.986   .     S
N24    Ga24    1.986   .     S
N24    Ga48    1.987   .     S
N24    Ga49    1.987   1_565 S
N25    Ga23    1.986   .     S
N25    Ga25    1.986   .     S
N25    Ga49    1.987   .     S
N25    Ga50    1.987   .     S
N26    Ga1     1.986   1_655 S
N26    Ga2     1.986   .     S
N27    Ga2     1.986   .     S
N27    Ga3     1.986   1_565 S
N28    Ga3     1.986   .     S
N28    Ga4     1.986   1_455 S
N29    Ga4     1.986   1_545 S
N29    Ga5     1.986   .     S
N30    Ga1     1.986   1_565 S
N30    Ga5     1.986   .     S
N31    Ga6     1.986   1_655 S
N31    Ga7     1.986   .     S
N31    Ga26    1.987   .     S
N31    Ga28    1.987   .     S
N32    Ga7     1.986   .     S
N32    Ga8     1.986   1_565 S
N32    Ga27    1.987   .     S
N32    Ga29    1.987   1_565 S
N33    Ga8     1.986   .     S
N33    Ga9     1.986   1_455 S
N33    Ga28    1.987   1_455 S
N33    Ga30    1.987   .     S
N34    Ga9     1.986   1_545 S
N34    Ga10    1.986   .     S
N34    Ga26    1.987   .     S
N34    Ga29    1.987   .     S
N35    Ga6     1.986   1_565 S
N35    Ga10    1.986   .     S
N35    Ga27    1.987   .     S
N35    Ga30    1.987   .     S
N36    Ga11    1.987   1_655 S
N36    Ga12    1.987   .     S
N36    Ga31    1.986   .     S
N36    Ga33    1.986   .     S
N37    Ga12    1.987   .     S
N37    Ga13    1.987   1_565 S
N37    Ga32    1.986   .     S
N37    Ga34    1.986   1_565 S
N38    Ga13    1.987   .     S
N38    Ga14    1.987   1_455 S
N38    Ga33    1.986   1_455 S
N38    Ga35    1.986   .     S
N39    Ga14    1.987   1_545 S
N39    Ga15    1.987   .     S
N39    Ga31    1.986   .     S
N39    Ga34    1.986   .     S
N40    Ga11    1.987   1_565 S
N40    Ga15    1.987   .     S
N40    Ga32    1.986   .     S
N40    Ga35    1.986   .     S
N41    Ga16    1.986   1_655 S
N41    Ga17    1.986   .     S
N41    Ga36    1.986   .     S
N41    Ga38    1.986   .     S
N42    Ga17    1.986   .     S
N42    Ga18    1.986   1_565 S
N42    Ga37    1.986   .     S
N42    Ga39    1.986   1_565 S
N43    Ga18    1.986   .     S
N43    Ga19    1.986   1_455 S
N43    Ga38    1.986   1_455 S
N43    Ga40    1.986   .     S
N44    Ga19    1.986   1_545 S
N44    Ga20    1.986   .     S
N44    Ga36    1.986   .     S
N44    Ga39    1.986   .     S
N45    Ga16    1.986   1_565 S
N45    Ga20    1.986   .     S
N45    Ga37    1.986   .     S
N45    Ga40    1.986   .     S
N46    Ga21    1.986   1_655 S
N46    Ga22    1.986   .     S
N46    Ga41    1.987   .     S
N46    Ga43    1.987   .     S
N47    Ga22    1.986   .     S
N47    Ga23    1.986   1_565 S
N47    Ga42    1.987   .     S
N47    Ga44    1.987   1_565 S
N48    Ga23    1.986   .     S
N48    Ga24    1.986   1_455 S
N48    Ga43    1.987   1_455 S
N48    Ga45    1.987   .     S
N49    Ga24    1.986   1_545 S
N49    Ga25    1.986   .     S
N49    Ga41    1.987   .     S
N49    Ga44    1.987   .     S
N50    Ga21    1.986   1_565 S
N50    Ga25    1.986   .     S
N50    Ga42    1.987   .     S
N50    Ga45    1.987   .     S
Ga1    N26     1.986   1_455 S
Ga1    N30     1.986   1_545 S
Ga1    N1      1.987   1_445 S
Ga3    N27     1.986   1_545 S
Ga4    N28     1.986   1_655 S
Ga4    N29     1.986   1_565 S
Ga6    N6      1.986   1_445 S
Ga6    N31     1.986   1_455 S
Ga6    N35     1.986   1_545 S
Ga8    N32     1.986   1_545 S
Ga9    N33     1.986   1_655 S
Ga9    N34     1.986   1_565 S
Ga11   N11     1.986   1_445 S
Ga11   N36     1.987   1_455 S
Ga11   N40     1.987   1_545 S
Ga13   N37     1.987   1_545 S
Ga14   N38     1.987   1_655 S
Ga14   N39     1.987   1_565 S
Ga16   N41     1.986   1_455 S
Ga16   N45     1.986   1_545 S
Ga16   N16     1.987   1_445 S
Ga18   N42     1.986   1_545 S
Ga19   N43     1.986   1_655 S
Ga19   N44     1.986   1_565 S
Ga21   N46     1.986   1_455 S
Ga21   N50     1.986   1_545 S
Ga21   N21     1.986   1_445 S
Ga23   N47     1.986   1_545 S
Ga24   N48     1.986   1_655 S
Ga24   N49     1.986   1_565 S
Ga26   N1      1.986   1_545 S
Ga27   N3      1.986   1_565 S
Ga28   N3      1.986   1_655 S
Ga28   N33     1.987   1_655 S
Ga29   N4      1.986   1_545 S
Ga29   N32     1.987   1_545 S
Ga30   N1      1.986   1_455 S
Ga31   N6      1.987   1_545 S
Ga32   N8      1.987   1_565 S
Ga33   N38     1.986   1_655 S
Ga33   N8      1.987   1_655 S
Ga34   N37     1.986   1_545 S
Ga34   N9      1.987   1_545 S
Ga35   N6      1.987   1_455 S
Ga36   N11     1.987   1_545 S
Ga37   N13     1.987   1_565 S
Ga38   N13     1.987   1_655 S
Ga38   N43     1.986   1_655 S
Ga39   N14     1.987   1_545 S
Ga39   N42     1.986   1_545 S
Ga40   N11     1.987   1_455 S
Ga41   N16     1.986   1_545 S
Ga42   N18     1.986   1_565 S
Ga43   N18     1.986   1_655 S
Ga43   N48     1.987   1_655 S
Ga44   N19     1.986   1_545 S
Ga44   N47     1.987   1_545 S
Ga45   N16     1.986   1_455 S
Ga46   N21     1.987   1_545 S
Ga47   N23     1.987   1_565 S
Ga48   N23     1.987   1_655 S
Ga49   N24     1.987   1_545 S
Ga50   N21     1.987   1_455 S
Hf1    O5      2.193   1_545 S
Hf1    O7      2.193   .     S
Hf1    O13     2.193   1_455 S
Hf1    O14     2.193   1_545 S
Hf1    O25     2.193   1_545 S
Hf1    O27     2.193   .     S
Hf1    O41     2.193   1_455 S
Hf1    O42     2.193   1_545 S
Hf2    O6      2.193   .     S
Hf2    O8      2.193   .     S
Hf2    O13     2.193   .     S
Hf2    O14     2.193   .     S
Hf2    O26     2.193   .     S
Hf2    O28     2.193   .     S
Hf2    O41     2.193   .     S
Hf2    O42     2.193   .     S
Hf3    O5      2.193   .     S
Hf3    O7      2.193   .     S
Hf3    O15     2.193   1_455 S
Hf3    O16     2.193   .     S
Hf3    O25     2.193   .     S
Hf3    O27     2.193   .     S
Hf3    O43     2.193   1_455 S
Hf3    O44     2.193   .     S
Hf4    O6      2.193   .     S
Hf4    O8      2.193   1_545 S
Hf4    O15     2.193   1_545 S
Hf4    O16     2.193   .     S
Hf4    O26     2.193   .     S
Hf4    O28     2.193   1_545 S
Hf4    O43     2.193   1_545 S
Hf4    O44     2.193   .     S
Hf5    O9      2.193   1_545 S
Hf5    O11     2.193   .     S
Hf5    O17     2.192   1_455 S
Hf5    O18     2.192   1_545 S
Hf5    O29     2.192   1_545 S
Hf5    O31     2.192   .     S
Hf5    O45     2.193   1_455 S
Hf5    O46     2.193   1_545 S
Hf6    O10     2.193   .     S
Hf6    O12     2.193   .     S
Hf6    O17     2.192   .     S
Hf6    O18     2.192   .     S
Hf6    O30     2.192   .     S
Hf6    O32     2.192   .     S
Hf6    O45     2.193   .     S
Hf6    O46     2.193   .     S
Hf7    O9      2.193   .     S
Hf7    O11     2.193   .     S
Hf7    O19     2.192   1_455 S
Hf7    O20     2.192   .     S
Hf7    O29     2.192   .     S
Hf7    O31     2.192   .     S
Hf7    O47     2.193   1_455 S
Hf7    O48     2.193   .     S
Hf8    O10     2.193   .     S
Hf8    O12     2.193   1_545 S
Hf8    O19     2.192   1_545 S
Hf8    O20     2.192   .     S
Hf8    O30     2.192   .     S
Hf8    O32     2.192   1_545 S
Hf8    O47     2.193   1_545 S
Hf8    O48     2.193   .     S
Hf9    O21     2.193   1_455 S
Hf9    O22     2.193   1_545 S
Hf9    O33     2.193   1_545 S
Hf9    O35     2.193   .     S
Hf10   O21     2.193   .     S
Hf10   O22     2.193   .     S
Hf10   O34     2.193   .     S
Hf10   O36     2.193   .     S
Hf11   O23     2.193   1_455 S
Hf11   O24     2.193   .     S
Hf11   O33     2.193   .     S
Hf11   O35     2.193   .     S
Hf12   O23     2.193   1_545 S
Hf12   O24     2.193   .     S
Hf12   O34     2.193   .     S
Hf12   O36     2.193   1_545 S
Hf13   O1      2.193   1_645 S
Hf13   O2      2.193   .     S
Hf13   O13     2.192   .     S
Hf13   O15     2.192   1_545 S
Hf13   O25     2.192   1_645 S
Hf13   O26     2.192   .     S
Hf13   O37     2.193   .     S
Hf13   O39     2.193   1_545 S
Hf14   O1      2.193   .     S
Hf14   O2      2.193   .     S
Hf14   O14     2.192   .     S
Hf14   O16     2.192   .     S
Hf14   O25     2.192   .     S
Hf14   O26     2.192   .     S
Hf14   O38     2.193   .     S
Hf14   O40     2.193   .     S
Hf15   O3      2.193   1_655 S
Hf15   O4      2.193   .     S
Hf15   O13     2.192   .     S
Hf15   O15     2.192   .     S
Hf15   O27     2.192   1_655 S
Hf15   O28     2.192   .     S
Hf15   O37     2.193   .     S
Hf15   O39     2.193   .     S
Hf16   O3      2.193   .     S
Hf16   O4      2.193   1_545 S
Hf16   O14     2.192   1_545 S
Hf16   O16     2.192   .     S
Hf16   O27     2.192   .     S
Hf16   O28     2.192   1_545 S
Hf16   O38     2.193   1_545 S
Hf16   O40     2.193   .     S
Hf17   O5      2.192   1_645 S
Hf17   O6      2.192   .     S
Hf17   O17     2.193   .     S
Hf17   O19     2.193   1_545 S
Hf17   O29     2.193   1_645 S
Hf17   O30     2.193   .     S
Hf17   O41     2.192   .     S
Hf17   O43     2.192   1_545 S
Hf18   O5      2.192   .     S
Hf18   O6      2.192   .     S
Hf18   O18     2.193   .     S
Hf18   O20     2.193   .     S
Hf18   O29     2.193   .     S
Hf18   O30     2.193   .     S
Hf18   O42     2.192   .     S
Hf18   O44     2.192   .     S
Hf19   O7      2.192   1_655 S
Hf19   O8      2.192   .     S
Hf19   O17     2.193   .     S
Hf19   O19     2.193   .     S
Hf19   O31     2.193   1_655 S
Hf19   O32     2.193   .     S
Hf19   O41     2.192   .     S
Hf19   O43     2.192   .     S
Hf20   O7      2.192   .     S
Hf20   O8      2.192   1_545 S
Hf20   O18     2.193   1_545 S
Hf20   O20     2.193   .     S
Hf20   O31     2.193   .     S
Hf20   O32     2.193   1_545 S
Hf20   O42     2.192   1_545 S
Hf20   O44     2.192   .     S
Hf21   O9      2.193   1_645 S
Hf21   O10     2.193   .     S
Hf21   O21     2.192   .     S
Hf21   O23     2.192   1_545 S
Hf21   O33     2.192   1_645 S
Hf21   O34     2.192   .     S
Hf21   O45     2.193   .     S
Hf21   O47     2.193   1_545 S
Hf22   O9      2.193   .     S
Hf22   O10     2.193   .     S
Hf22   O22     2.192   .     S
Hf22   O24     2.192   .     S
Hf22   O33     2.192   .     S
Hf22   O34     2.192   .     S
Hf22   O46     2.193   .     S
Hf22   O48     2.193   .     S
Hf23   O11     2.193   1_655 S
Hf23   O12     2.193   .     S
Hf23   O21     2.192   .     S
Hf23   O23     2.192   .     S
Hf23   O35     2.192   1_655 S
Hf23   O36     2.192   .     S
Hf23   O45     2.193   .     S
Hf23   O47     2.193   .     S
Hf24   O11     2.193   .     S
Hf24   O12     2.193   1_545 S
Hf24   O22     2.192   1_545 S
Hf24   O24     2.192   .     S
Hf24   O35     2.192   .     S
Hf24   O36     2.192   1_545 S
Hf24   O46     2.193   1_545 S
Hf24   O48     2.193   .     S
O1     Hf13    2.193   1_465 S
O3     Hf15    2.193   1_455 S
O4     Hf16    2.193   1_565 S
O5     Hf17    2.192   1_465 S
O5     Hf1     2.193   1_565 S
O7     Hf19    2.192   1_455 S
O8     Hf20    2.192   1_565 S
O8     Hf4     2.193   1_565 S
O9     Hf5     2.193   1_565 S
O9     Hf21    2.193   1_465 S
O11    Hf23    2.193   1_455 S
O12    Hf8     2.193   1_565 S
O12    Hf24    2.193   1_565 S
O13    Hf1     2.193   1_655 S
O14    Hf1     2.193   1_565 S
O14    Hf16    2.192   1_565 S
O15    Hf4     2.193   1_565 S
O15    Hf13    2.192   1_565 S
O15    Hf3     2.193   1_655 S
O17    Hf5     2.192   1_655 S
O18    Hf5     2.192   1_565 S
O18    Hf20    2.193   1_565 S
O19    Hf8     2.192   1_565 S
O19    Hf7     2.192   1_655 S
O19    Hf17    2.193   1_565 S
O21    Hf9     2.193   1_655 S
O22    Hf24    2.192   1_565 S
O22    Hf9     2.193   1_565 S
O23    Hf21    2.192   1_565 S
O23    Hf12    2.193   1_565 S
O23    Hf11    2.193   1_655 S
O25    Hf13    2.192   1_465 S
O25    Hf1     2.193   1_565 S
O27    Hf15    2.192   1_455 S
O28    Hf16    2.192   1_565 S
O28    Hf4     2.193   1_565 S
O29    Hf5     2.192   1_565 S
O29    Hf17    2.193   1_465 S
O31    Hf19    2.193   1_455 S
O32    Hf8     2.192   1_565 S
O32    Hf20    2.193   1_565 S
O33    Hf21    2.192   1_465 S
O33    Hf9     2.193   1_565 S
O35    Hf23    2.192   1_455 S
O36    Hf24    2.192   1_565 S
O36    Hf12    2.193   1_565 S
O38    Hf16    2.193   1_565 S
O39    Hf13    2.193   1_565 S
O41    Hf1     2.193   1_655 S
O42    Hf20    2.192   1_565 S
O42    Hf1     2.193   1_565 S
O43    Hf17    2.192   1_565 S
O43    Hf4     2.193   1_565 S
O43    Hf3     2.193   1_655 S
O45    Hf5     2.193   1_655 S
O46    Hf5     2.193   1_565 S
O46    Hf24    2.193   1_565 S
O47    Hf8     2.193   1_565 S
O47    Hf7     2.193   1_655 S
O47    Hf21    2.193   1_565 S
