data_Layer
_audit_creation_date              2019-07-30
_audit_creation_method            'Materials Studio'
_symmetry_space_group_name_H-M    'P1'
_symmetry_Int_Tables_number       1
_symmetry_cell_setting            triclinic
loop_
_symmetry_equiv_pos_as_xyz
  x,y,z
_cell_length_a                    3.2587
_cell_length_b                    3.2587
_cell_length_c                    25.0752
_cell_angle_alpha                 90.0000
_cell_angle_beta                  90.0000
_cell_angle_gamma                 120.0000
loop_
_atom_site_label
_atom_site_type_symbol
_atom_site_fract_x
_atom_site_fract_y
_atom_site_fract_z
_atom_site_U_iso_or_equiv
_atom_site_adp_type
_atom_site_occupancy
Mo1    Mo    0.33333   0.66667   0.35667   0.01267  Uiso   1.00
S1     S     0.66667   0.33333   0.41424   0.01267  Uiso   1.00
S2     S     0.66667   0.33333   0.29910   0.01267  Uiso   1.00
W1     W     0.66667   0.33333   0.63135   0.01267  Uiso   1.00
Se1    Se    0.33333   0.66667   0.56179   0.01267  Uiso   1.00
Se2    Se    0.33333   0.66667   0.70090   0.01267  Uiso   1.00
loop_
_geom_bond_atom_site_label_1
_geom_bond_atom_site_label_2
_geom_bond_distance
_geom_bond_site_symmetry_2
_ccdc_geom_bond_type
Mo1    S1      2.371   .     S
Mo1    S1      2.371   1_455 S
Mo1    S1      2.371   1_565 S
Mo1    S2      2.371   .     S
Mo1    S2      2.371   1_455 S
Mo1    S2      2.371   1_565 S
S1     Mo1     2.371   1_655 S
S1     Mo1     2.371   1_545 S
S2     Mo1     2.371   1_655 S
S2     Mo1     2.371   1_545 S
W1     Se1     2.565   1_655 S
W1     Se1     2.565   1_545 S
W1     Se2     2.565   1_545 S
W1     Se2     2.565   1_655 S
Se1    W1      2.565   1_455 S
Se1    W1      2.565   1_565 S
Se2    W1      2.565   1_565 S
Se2    W1      2.565   1_455 S
